*Heading
** Job name: Imp_HEX20_2ft Model name: Implicit
** Generated by: Abaqus/CAE 2017
*Preprint, echo=NO, model=NO, history=NO, contact=NO
**
** PARTS
**
*Part, name=Part-1
*Node
      1,          10.,          10.,          20.
      2,          10.,           8.,          20.
      3,          10.,          10.,          18.
      4,          10.,           8.,          18.
      5,          10.,          10.,          16.
      6,          10.,           8.,          16.
      7,          10.,          10.,          14.
      8,          10.,           8.,          14.
      9,          10.,          10.,          12.
     10,          10.,           8.,          12.
     11,          10.,          10.,          10.
     12,          10.,           8.,          10.
     13,          10.,          10.,           8.
     14,          10.,           8.,           8.
     15,          10.,          10.,           6.
     16,          10.,           8.,           6.
     17,          10.,          10.,           4.
     18,          10.,           8.,           4.
     19,          10.,          10.,           2.
     20,          10.,           8.,           2.
** ... 108 like lines cut
*Element, type=C3D20
 1,  23,  24,  26,  25,   1,   2,   4,   3,  48,  47,  46,  45,  49,  50,  51,
     52,  54,  53,  55,  56
 2,  25,  26,  28,  27,   3,   4,   6,   5,  46,  59,  58,  57,  51,  60,  61,
     62,  56,  55,  63,  64
 3,  27,  28,  30,  29,   5,   6,   8,   7,  58,  67,  66,  65,  61,  68,  69,
     70,  64,  63,  71,  72
 4,  29,  30,  32,  31,   7,   8,  10,   9,  66,  75,  74,  73,  69,  76,  77,
     78,  72,  71,  79,  80
 5,  31,  32,  34,  33,   9,  10,  12,  11,  74,  83,  82,  81,  77,  84,  85,
     86,  80,  79,  87,  88
 6,  33,  34,  36,  35,  11,  12,  14,  13,  82,  91,  90,  89,  85,  92,  93,
     94,  88,  87,  95,  96
 7,  35,  36,  38,  37,  13,  14,  16,  15,  90,  99,  98,  97,  93, 100, 101,
    102,  96,  95, 103, 104
 8,  37,  38,  40,  39,  15,  16,  18,  17,  98, 107, 106, 105, 101, 108, 109,
    110, 104, 103, 111, 112
 9,  39,  40,  42,  41,  17,  18,  20,  19, 106, 115, 114, 113, 109, 116, 117,
    118, 112, 111, 119, 120
10,  41,  42,  44,  43,  19,  20,  22,  21, 114, 123, 122, 121, 117, 124, 125,
    126, 120, 119, 127, 128
*Nset, nset=Set-1, generate
   1,  128,    1
*Elset, elset=Set-1, generate
  1,  10,   1
** Section: Section-1
*Solid Section, elset=Set-1, material=Soil
,
*End Part
**  
**
** ASSEMBLY
**
*Assembly, name=Assembly
**  
*Instance, name=Part-1-1, part=Part-1
         -9.,          -9.,           0.
*End Instance
**  
*Elset, elset=Elem_Strs_TM, instance=Part-1-1
 1, 6
*Nset, nset=Fixed, instance=Part-1-1
  21,  22,  43,  44, 122, 125, 127, 128
*Elset, elset=Fixed, instance=Part-1-1
 10,
*Nset, nset=Node_disp_TM, instance=Part-1-1
  1,  2, 23, 24
*Elset, elset=_Pressure_S3, internal, instance=Part-1-1
 1,
*Surface, type=ELEMENT, name=Pressure
_Pressure_S3, S3
*End Assembly
** 
** MATERIALS
** 
*Material, name=Soil
*Density
 3.67,
*Elastic
 1.19752e+08, 0.3
** ----------------------------------------------------------------
** 
** STEP: Implicit
** 
*Step, name=Implicit, nlgeom=NO, inc=10000
*Dynamic,direct
1e-05,0.02,
** 
** BOUNDARY CONDITIONS
** 
** Name: BC-1 Type: Displacement/Rotation
*Boundary
Fixed, 1, 1
Fixed, 2, 2
Fixed, 3, 3
** 
** LOADS
** 
** Name: Pressure   Type: Pressure
*Dsload
Pressure, P, 1000.
** 
** OUTPUT REQUESTS
** 
*Restart, write, frequency=0
** 
** FIELD OUTPUT: F-Output-1
** 
*Output, field, frequency=100
*Node Output
A, U, V
*Element Output, directions=YES
S, 
** 
** HISTORY OUTPUT: H-Output-1
** 
*Output, history, time interval=1e-05, time marks=NO
*Element Output, elset=Elem_Strs_TM
S33, 
** 
** HISTORY OUTPUT: H-Output-2
** 
*Node Output, nset=Node_disp_TM
U1, U2, U3
*End Step
